@<TRIPOS>MOLECULE
30
 51 54 0 0 0
SMALL
GASTEIGER
****
Structure written by MMmdl.
@<TRIPOS>ATOM
      1 C           1.3901   29.1077    6.7935 C.ar    1  LIG1        0.2246
      2 C          -1.6911   31.9130    8.0794 C.ar    1  LIG1        0.0958
      3 C          -0.7437   26.3748    8.8319 C.3     1  LIG1        0.0941
      4 C          -1.3142   25.5567    9.9914 C.3     1  LIG1       -0.0067
      5 C          -1.1214   24.0589    9.6854 C.3     1  LIG1       -0.0471
      6 C          -1.5824   23.1795   10.8502 C.3     1  LIG1       -0.0527
      7 C          -0.8551   23.5463   12.1491 C.3     1  LIG1       -0.0530
      8 C          -1.0780   25.0277   12.4857 C.3     1  LIG1       -0.0527
      9 C          -0.6321   25.9351   11.3273 C.3     1  LIG1       -0.0471
     10 C           4.6903   25.7129    5.8380 C.ar    1  LIG1       -0.0351
     11 C           4.6667   25.1395    7.1233 C.ar    1  LIG1        0.0880
     12 C           3.9496   25.7658    8.1576 C.ar    1  LIG1       -0.0351
     13 C           3.2460   26.9556    7.8985 C.ar    1  LIG1       -0.0387
     14 N           0.6302   28.2313    7.4508 N.ar    1  LIG1       -0.1773
     15 C          -0.4898   28.6252    8.0923 C.ar    1  LIG1        0.2476
     16 O          -1.1796   27.7315    8.8832 O.3     1  LIG1       -0.4745
     17 C          -0.8660   29.9818    8.0000 C.ar    1  LIG1        0.1690
     18 N          -1.9251   30.7129    8.5212 N.ar    1  LIG1       -0.2289
     19 N          -0.5542   32.0464    7.3306 N.ar    1  LIG1       -0.3291
     20 C          -0.0249   30.7863    7.2610 C.ar    1  LIG1        0.1665
     21 N           1.1172   30.4049    6.6113 N.ar    1  LIG1       -0.1946
     22 N           2.5827   28.6807    6.3360 N.pl3   1  LIG1       -0.2835
     23 C           3.2365   27.5251    6.6032 C.ar    1  LIG1        0.0337
     24 C           3.9871   26.9068    5.5819 C.ar    1  LIG1       -0.0387
     25 H          -2.3542   32.7337    8.2866 H       1  LIG1        0.1027
     26 H           0.3421   26.2813    8.8885 H       1  LIG1        0.0700
     27 H          -1.0533   25.9544    7.8735 H       1  LIG1        0.0700
     28 H          -2.3846   25.7536   10.0698 H       1  LIG1        0.0334
     29 H          -1.6745   23.7903    8.7850 H       1  LIG1        0.0269
     30 H          -0.0713   23.8531    9.4740 H       1  LIG1        0.0269
     31 H          -2.6489   23.3294   10.9949 H       1  LIG1        0.0265
     32 H          -1.4335   22.1247   10.6147 H       1  LIG1        0.0265
     33 H          -1.2175   22.9242   12.9680 H       1  LIG1        0.0265
     34 H           0.2126   23.3446   12.0504 H       1  LIG1        0.0265
     35 H          -2.1337   25.2025   12.7004 H       1  LIG1        0.0265
     36 H          -0.5350   25.2900   13.3929 H       1  LIG1        0.0265
     37 H           0.4518   25.8639   11.2223 H       1  LIG1        0.0269
     38 H          -0.8463   26.9766   11.5731 H       1  LIG1        0.0269
     39 H           5.2554   25.2427    5.0475 H       1  LIG1        0.0637
     40 H           3.9402   25.3397    9.1502 H       1  LIG1        0.0637
     41 H           2.7083   27.4238    8.7079 H       1  LIG1        0.0637
     42 H          -0.1784   32.8770    6.8845 H       1  LIG1        0.1682
     43 H           3.0167   29.2655    5.6333 H       1  LIG1        0.1550
     44 H           4.0234   27.3389    4.5933 H       1  LIG1        0.0637
     45 S           5.4311   23.8790    7.4001 S.O2    1  LIG1       -0.0059
     46 O           5.8108   23.2938    6.1199 O.2     1  LIG1       -0.1696
     47 O           6.4234   24.1721    8.4274 O.2     1  LIG1       -0.1696
     48 C           4.4921   22.8906    8.0257 C.3     1  LIG1        0.0596
     49 H           5.0598   21.9809    8.2212 H       1  LIG1        0.0468
     50 H           4.1195   23.3347    8.9487 H       1  LIG1        0.0468
     51 H           3.6856   22.7126    7.3144 H       1  LIG1        0.0468
@<TRIPOS>BOND
     1     1    14   ar
     2     1    21   ar
     3     1    22    1
     4     2    18   ar
     5     2    19   ar
     6     2    25    1
     7     3     4    1
     8     3    16    1
     9     3    26    1
    10     3    27    1
    11     4     5    1
    12     4     9    1
    13     4    28    1
    14     5     6    1
    15     5    29    1
    16     5    30    1
    17     6     7    1
    18     6    31    1
    19     6    32    1
    20     7     8    1
    21     7    33    1
    22     7    34    1
    23     8     9    1
    24     8    35    1
    25     8    36    1
    26     9    37    1
    27     9    38    1
    28    10    11   ar
    29    10    24   ar
    30    10    39    1
    31    11    12   ar
    32    11    45    1
    33    12    13   ar
    34    12    40    1
    35    13    23   ar
    36    13    41    1
    37    14    15   ar
    38    15    16    1
    39    15    17   ar
    40    17    18   ar
    41    17    20   ar
    42    19    20   ar
    43    19    42    1
    44    20    21   ar
    45    22    23    1
    46    22    43    1
    47    23    24   ar
    48    24    44    1
    49    45    46    2
    50    45    47    2
    51    45    48    1
    52    48    49    1
    53    48    50    1
    54    48    51    1
@<TRIPOS>MOLECULE
28
 53 56 0 0 0
SMALL
GASTEIGER
****
Structure written by MMmdl.
@<TRIPOS>ATOM
      1 C           1.3901   29.1077    6.7935 C.ar    1  LIG1        0.2246
      2 C          -1.6911   31.9130    8.0794 C.ar    1  LIG1        0.0958
      3 C          -0.7437   26.3748    8.8319 C.3     1  LIG1        0.0941
      4 C          -1.3142   25.5567    9.9914 C.3     1  LIG1       -0.0067
      5 C          -1.1214   24.0589    9.6854 C.3     1  LIG1       -0.0471
      6 C          -1.5824   23.1795   10.8502 C.3     1  LIG1       -0.0527
      7 C          -0.8551   23.5463   12.1491 C.3     1  LIG1       -0.0530
      8 C          -1.0780   25.0277   12.4857 C.3     1  LIG1       -0.0527
      9 C          -0.6321   25.9351   11.3273 C.3     1  LIG1       -0.0471
     10 C           4.6903   25.7129    5.8380 C.ar    1  LIG1       -0.0336
     11 C           4.6667   25.1395    7.1233 C.ar    1  LIG1        0.1053
     12 C           3.9496   25.7658    8.1576 C.ar    1  LIG1       -0.0336
     13 C           3.2460   26.9556    7.8985 C.ar    1  LIG1       -0.0386
     14 N           0.6302   28.2313    7.4508 N.ar    1  LIG1       -0.1773
     15 C          -0.4898   28.6252    8.0923 C.ar    1  LIG1        0.2476
     16 O          -1.1796   27.7315    8.8832 O.3     1  LIG1       -0.4745
     17 C          -0.8660   29.9818    8.0000 C.ar    1  LIG1        0.1690
     18 N          -1.9251   30.7129    8.5212 N.ar    1  LIG1       -0.2289
     19 N          -0.5542   32.0464    7.3306 N.ar    1  LIG1       -0.3291
     20 C          -0.0249   30.7863    7.2610 C.ar    1  LIG1        0.1665
     21 N           1.1172   30.4049    6.6113 N.ar    1  LIG1       -0.1946
     22 N           2.5827   28.6807    6.3360 N.pl3   1  LIG1       -0.2835
     23 C           3.2365   27.5251    6.6032 C.ar    1  LIG1        0.0337
     24 C           3.9871   26.9068    5.5819 C.ar    1  LIG1       -0.0386
     25 H          -2.3542   32.7337    8.2866 H       1  LIG1        0.1027
     26 H           0.3421   26.2813    8.8885 H       1  LIG1        0.0700
     27 H          -1.0533   25.9544    7.8735 H       1  LIG1        0.0700
     28 H          -2.3846   25.7536   10.0698 H       1  LIG1        0.0334
     29 H          -1.6745   23.7903    8.7850 H       1  LIG1        0.0269
     30 H          -0.0713   23.8531    9.4740 H       1  LIG1        0.0269
     31 H          -2.6489   23.3294   10.9949 H       1  LIG1        0.0265
     32 H          -1.4335   22.1247   10.6147 H       1  LIG1        0.0265
     33 H          -1.2175   22.9242   12.9680 H       1  LIG1        0.0265
     34 H           0.2126   23.3446   12.0504 H       1  LIG1        0.0265
     35 H          -2.1337   25.2025   12.7004 H       1  LIG1        0.0265
     36 H          -0.5350   25.2900   13.3929 H       1  LIG1        0.0265
     37 H           0.4518   25.8639   11.2223 H       1  LIG1        0.0269
     38 H          -0.8463   26.9766   11.5731 H       1  LIG1        0.0269
     39 H           5.2554   25.2427    5.0475 H       1  LIG1        0.0638
     40 H           3.9402   25.3397    9.1502 H       1  LIG1        0.0638
     41 H           2.7083   27.4238    8.7079 H       1  LIG1        0.0637
     42 H          -0.1784   32.8770    6.8845 H       1  LIG1        0.1682
     43 H           3.0167   29.2655    5.6333 H       1  LIG1        0.1550
     44 H           4.0234   27.3389    4.5933 H       1  LIG1        0.0637
     45 S           5.4311   23.8790    7.4001 S.O2    1  LIG1        0.0582
     46 O           5.8108   23.2938    6.1199 O.2     1  LIG1       -0.1531
     47 O           6.4234   24.1721    8.4274 O.2     1  LIG1       -0.1531
     48 N           4.3520   22.7432    8.1190 N.3     1  LIG1       -0.1930
     49 H           3.7946   22.1535    7.5176 H       1  LIG1        0.1477
     50 C           4.1627   22.7723    9.5553 C.3     1  LIG1        0.0059
     51 H           3.4517   21.9850    9.8059 H       1  LIG1        0.0405
     52 H           5.1346   22.5937   10.0154 H       1  LIG1        0.0405
     53 H           3.7743   23.7577    9.8125 H       1  LIG1        0.0405
@<TRIPOS>BOND
     1     1    14   ar
     2     1    21   ar
     3     1    22    1
     4     2    18   ar
     5     2    19   ar
     6     2    25    1
     7     3     4    1
     8     3    16    1
     9     3    26    1
    10     3    27    1
    11     4     5    1
    12     4     9    1
    13     4    28    1
    14     5     6    1
    15     5    29    1
    16     5    30    1
    17     6     7    1
    18     6    31    1
    19     6    32    1
    20     7     8    1
    21     7    33    1
    22     7    34    1
    23     8     9    1
    24     8    35    1
    25     8    36    1
    26     9    37    1
    27     9    38    1
    28    10    11   ar
    29    10    24   ar
    30    10    39    1
    31    11    12   ar
    32    11    45    1
    33    12    13   ar
    34    12    40    1
    35    13    23   ar
    36    13    41    1
    37    14    15   ar
    38    15    16    1
    39    15    17   ar
    40    17    18   ar
    41    17    20   ar
    42    19    20   ar
    43    19    42    1
    44    20    21   ar
    45    22    23    1
    46    22    43    1
    47    23    24   ar
    48    24    44    1
    49    45    46    2
    50    45    47    2
    51    45    48    1
    52    48    49    1
    53    48    50    1
    54    50    51    1
    55    50    52    1
    56    50    53    1
@<TRIPOS>MOLECULE
1oiy
 49 52 0 0 0
SMALL
GASTEIGER
****
Structure written by MMmdl.
@<TRIPOS>ATOM
      1 C           1.3901   29.1077    6.7935 C.ar    1  LIG1        0.2246
      2 C          -1.6911   31.9130    8.0794 C.ar    1  LIG1        0.0958
      3 C          -0.7437   26.3748    8.8319 C.3     1  LIG1        0.0941
      4 C          -1.3142   25.5567    9.9914 C.3     1  LIG1       -0.0067
      5 C          -1.1214   24.0589    9.6854 C.3     1  LIG1       -0.0471
      6 C          -1.5824   23.1795   10.8502 C.3     1  LIG1       -0.0527
      7 C          -0.8551   23.5463   12.1491 C.3     1  LIG1       -0.0530
      8 C          -1.0780   25.0277   12.4857 C.3     1  LIG1       -0.0527
      9 C          -0.6321   25.9351   11.3273 C.3     1  LIG1       -0.0471
     10 C           4.6903   25.7129    5.8380 C.ar    1  LIG1       -0.0479
     11 C           4.6667   25.1395    7.1233 C.ar    1  LIG1        0.0366
     12 C           3.9496   25.7658    8.1576 C.ar    1  LIG1       -0.0479
     13 C           3.2460   26.9556    7.8985 C.ar    1  LIG1       -0.0398
     14 N           0.6302   28.2313    7.4508 N.ar    1  LIG1       -0.1773
     15 C          -0.4898   28.6252    8.0923 C.ar    1  LIG1        0.2476
     16 O          -1.1796   27.7315    8.8832 O.3     1  LIG1       -0.4745
     17 C          -0.8660   29.9818    8.0000 C.ar    1  LIG1        0.1690
     18 N          -1.9251   30.7129    8.5212 N.ar    1  LIG1       -0.2289
     19 N          -0.5542   32.0464    7.3306 N.ar    1  LIG1       -0.3291
     20 C          -0.0249   30.7863    7.2610 C.ar    1  LIG1        0.1665
     21 N           1.1172   30.4049    6.6113 N.ar    1  LIG1       -0.1946
     22 N           2.5827   28.6807    6.3360 N.pl3   1  LIG1       -0.2835
     23 C           3.2365   27.5251    6.6032 C.ar    1  LIG1        0.0336
     24 C           3.9871   26.9068    5.5819 C.ar    1  LIG1       -0.0398
     25 H          -2.3542   32.7337    8.2866 H       1  LIG1        0.1027
     26 H           0.3421   26.2813    8.8885 H       1  LIG1        0.0700
     27 H          -1.0533   25.9544    7.8735 H       1  LIG1        0.0700
     28 H          -2.3846   25.7536   10.0698 H       1  LIG1        0.0334
     29 H          -1.6745   23.7903    8.7850 H       1  LIG1        0.0269
     30 H          -0.0713   23.8531    9.4740 H       1  LIG1        0.0269
     31 H          -2.6489   23.3294   10.9949 H       1  LIG1        0.0265
     32 H          -1.4335   22.1247   10.6147 H       1  LIG1        0.0265
     33 H          -1.2175   22.9242   12.9680 H       1  LIG1        0.0265
     34 H           0.2126   23.3446   12.0504 H       1  LIG1        0.0265
     35 H          -2.1337   25.2025   12.7004 H       1  LIG1        0.0265
     36 H          -0.5350   25.2900   13.3929 H       1  LIG1        0.0265
     37 H           0.4518   25.8639   11.2223 H       1  LIG1        0.0269
     38 H          -0.8463   26.9766   11.5731 H       1  LIG1        0.0269
     39 H           5.2554   25.2427    5.0475 H       1  LIG1        0.0626
     40 H           3.9402   25.3397    9.1502 H       1  LIG1        0.0626
     41 H           2.7083   27.4238    8.7079 H       1  LIG1        0.0636
     42 H          -0.1784   32.8770    6.8845 H       1  LIG1        0.1682
     43 H           3.0167   29.2655    5.6333 H       1  LIG1        0.1550
     44 H           4.0234   27.3389    4.5933 H       1  LIG1        0.0636
     45 O           6.1562   23.4726    6.4890 O.2     1  LIG1       -0.2704
     46 C           5.4123   23.9101    7.3933 C.2     1  LIG1        0.2415
     47 N           5.2289   23.2655    8.7353 N.am    1  LIG1       -0.3253
     48 H           4.5210   23.8580    9.3336 H       1  LIG1        0.1453
     49 H           5.7263   22.4156    8.9596 H       1  LIG1        0.1453
@<TRIPOS>BOND
     1     1    14   ar
     2     1    21   ar
     3     1    22    1
     4     2    18   ar
     5     2    19   ar
     6     2    25    1
     7     3     4    1
     8     3    16    1
     9     3    26    1
    10     3    27    1
    11     4     5    1
    12     4     9    1
    13     4    28    1
    14     5     6    1
    15     5    29    1
    16     5    30    1
    17     6     7    1
    18     6    31    1
    19     6    32    1
    20     7     8    1
    21     7    33    1
    22     7    34    1
    23     8     9    1
    24     8    35    1
    25     8    36    1
    26     9    37    1
    27     9    38    1
    28    10    11   ar
    29    10    24   ar
    30    10    39    1
    31    11    12   ar
    32    11    46    1
    33    12    13   ar
    34    12    40    1
    35    13    23   ar
    36    13    41    1
    37    14    15   ar
    38    15    16    1
    39    15    17   ar
    40    17    18   ar
    41    17    20   ar
    42    19    20   ar
    43    19    42    1
    44    20    21   ar
    45    22    23    1
    46    22    43    1
    47    23    24   ar
    48    24    44    1
    49    45    46    2
    50    46    47   am
    51    47    48    1
    52    47    49    1
@<TRIPOS>MOLECULE
1oi9
 46 49 0 0 0
SMALL
GASTEIGER
****
Structure written by MMmdl.
@<TRIPOS>ATOM
      1 C           1.3901   29.1077    6.7935 C.ar    1  LIG1        0.2246
      2 C          -1.6911   31.9130    8.0794 C.ar    1  LIG1        0.0958
      3 C          -0.7437   26.3748    8.8319 C.3     1  LIG1        0.0941
      4 C          -1.3142   25.5567    9.9914 C.3     1  LIG1       -0.0067
      5 C          -1.1214   24.0589    9.6854 C.3     1  LIG1       -0.0471
      6 C          -1.5824   23.1795   10.8502 C.3     1  LIG1       -0.0527
      7 C          -0.8551   23.5463   12.1491 C.3     1  LIG1       -0.0530
      8 C          -1.0780   25.0277   12.4857 C.3     1  LIG1       -0.0527
      9 C          -0.6321   25.9351   11.3273 C.3     1  LIG1       -0.0471
     10 C           4.6903   25.7129    5.8380 C.ar    1  LIG1       -0.0184
     11 C           4.6667   25.1395    7.1233 C.ar    1  LIG1        0.1170
     12 C           3.9496   25.7658    8.1576 C.ar    1  LIG1       -0.0184
     13 C           3.2460   26.9556    7.8985 C.ar    1  LIG1       -0.0370
     14 N           0.6302   28.2313    7.4508 N.ar    1  LIG1       -0.1773
     15 C          -0.4898   28.6252    8.0923 C.ar    1  LIG1        0.2476
     16 O          -1.1796   27.7315    8.8832 O.3     1  LIG1       -0.4745
     17 C          -0.8660   29.9818    8.0000 C.ar    1  LIG1        0.1690
     18 N          -1.9251   30.7129    8.5212 N.ar    1  LIG1       -0.2289
     19 N          -0.5542   32.0464    7.3306 N.ar    1  LIG1       -0.3291
     20 C          -0.0249   30.7863    7.2610 C.ar    1  LIG1        0.1665
     21 N           1.1172   30.4049    6.6113 N.ar    1  LIG1       -0.1946
     22 N           2.5827   28.6807    6.3360 N.pl3   1  LIG1       -0.2835
     23 C           3.2365   27.5251    6.6032 C.ar    1  LIG1        0.0338
     24 C           3.9871   26.9068    5.5819 C.ar    1  LIG1       -0.0370
     25 H          -2.3542   32.7337    8.2866 H       1  LIG1        0.1027
     26 H           0.3421   26.2813    8.8885 H       1  LIG1        0.0700
     27 H          -1.0533   25.9544    7.8735 H       1  LIG1        0.0700
     28 H          -2.3846   25.7536   10.0698 H       1  LIG1        0.0334
     29 H          -1.6745   23.7903    8.7850 H       1  LIG1        0.0269
     30 H          -0.0713   23.8531    9.4740 H       1  LIG1        0.0269
     31 H          -2.6489   23.3294   10.9949 H       1  LIG1        0.0265
     32 H          -1.4335   22.1247   10.6147 H       1  LIG1        0.0265
     33 H          -1.2175   22.9242   12.9680 H       1  LIG1        0.0265
     34 H           0.2126   23.3446   12.0504 H       1  LIG1        0.0265
     35 H          -2.1337   25.2025   12.7004 H       1  LIG1        0.0265
     36 H          -0.5350   25.2900   13.3929 H       1  LIG1        0.0265
     37 H           0.4518   25.8639   11.2223 H       1  LIG1        0.0269
     38 H          -0.8463   26.9766   11.5731 H       1  LIG1        0.0269
     39 H           5.2554   25.2427    5.0475 H       1  LIG1        0.0655
     40 H           3.9402   25.3397    9.1502 H       1  LIG1        0.0655
     41 H           2.7083   27.4238    8.7079 H       1  LIG1        0.0637
     42 H          -0.1784   32.8770    6.8845 H       1  LIG1        0.1682
     43 H           3.0167   29.2655    5.6333 H       1  LIG1        0.1550
     44 H           4.0234   27.3389    4.5933 H       1  LIG1        0.0637
     45 O           5.3618   23.9933    7.3750 O.3     1  LIG1       -0.5068
     46 H           5.2464   23.7368    8.2772 H       1  LIG1        0.2921
@<TRIPOS>BOND
     1     1    14   ar
     2     1    21   ar
     3     1    22    1
     4     2    18   ar
     5     2    19   ar
     6     2    25    1
     7     3     4    1
     8     3    16    1
     9     3    26    1
    10     3    27    1
    11     4     5    1
    12     4     9    1
    13     4    28    1
    14     5     6    1
    15     5    29    1
    16     5    30    1
    17     6     7    1
    18     6    31    1
    19     6    32    1
    20     7     8    1
    21     7    33    1
    22     7    34    1
    23     8     9    1
    24     8    35    1
    25     8    36    1
    26     9    37    1
    27     9    38    1
    28    10    11   ar
    29    10    24   ar
    30    10    39    1
    31    11    12   ar
    32    11    45    1
    33    12    13   ar
    34    12    40    1
    35    13    23   ar
    36    13    41    1
    37    14    15   ar
    38    15    16    1
    39    15    17   ar
    40    17    18   ar
    41    17    20   ar
    42    19    20   ar
    43    19    42    1
    44    20    21   ar
    45    22    23    1
    46    22    43    1
    47    23    24   ar
    48    24    44    1
    49    45    46    1
@<TRIPOS>MOLECULE
32
 54 57 0 0 0
SMALL
GASTEIGER
****
Structure written by MMmdl.
@<TRIPOS>ATOM
      1 C           1.3901   29.1077    6.7935 C.ar    1  LIG1        0.2246
      2 C          -1.6911   31.9130    8.0794 C.ar    1  LIG1        0.0958
      3 C          -0.7437   26.3748    8.8319 C.3     1  LIG1        0.0941
      4 C          -1.3142   25.5567    9.9914 C.3     1  LIG1       -0.0067
      5 C          -1.1214   24.0589    9.6854 C.3     1  LIG1       -0.0471
      6 C          -1.5824   23.1795   10.8502 C.3     1  LIG1       -0.0527
      7 C          -0.8551   23.5463   12.1491 C.3     1  LIG1       -0.0530
      8 C          -1.0780   25.0277   12.4857 C.3     1  LIG1       -0.0527
      9 C          -0.6321   25.9351   11.3273 C.3     1  LIG1       -0.0471
     10 C           4.6903   25.7129    5.8380 C.ar    1  LIG1       -0.0300
     11 C           4.6667   25.1395    7.1233 C.ar    1  LIG1        0.1465
     12 C           3.9496   25.7658    8.1576 C.ar    1  LIG1        0.1481
     13 C           3.2460   26.9556    7.8985 C.ar    1  LIG1        0.0032
     14 N           0.6302   28.2313    7.4508 N.ar    1  LIG1       -0.1773
     15 C          -0.4898   28.6252    8.0923 C.ar    1  LIG1        0.2476
     16 O          -1.1796   27.7315    8.8832 O.3     1  LIG1       -0.4745
     17 C          -0.8660   29.9818    8.0000 C.ar    1  LIG1        0.1690
     18 N          -1.9251   30.7129    8.5212 N.ar    1  LIG1       -0.2289
     19 N          -0.5542   32.0464    7.3306 N.ar    1  LIG1       -0.3291
     20 C          -0.0249   30.7863    7.2610 C.ar    1  LIG1        0.1665
     21 N           1.1172   30.4049    6.6113 N.ar    1  LIG1       -0.1946
     22 N           2.5827   28.6807    6.3360 N.pl3   1  LIG1       -0.2834
     23 C           3.2365   27.5251    6.6032 C.ar    1  LIG1        0.0372
     24 C           3.9871   26.9068    5.5819 C.ar    1  LIG1       -0.0384
     25 H          -2.3542   32.7337    8.2866 H       1  LIG1        0.1027
     26 H           0.3421   26.2813    8.8885 H       1  LIG1        0.0700
     27 H          -1.0533   25.9544    7.8735 H       1  LIG1        0.0700
     28 H          -2.3846   25.7536   10.0698 H       1  LIG1        0.0334
     29 H          -1.6745   23.7903    8.7850 H       1  LIG1        0.0269
     30 H          -0.0713   23.8531    9.4740 H       1  LIG1        0.0269
     31 H          -2.6489   23.3294   10.9949 H       1  LIG1        0.0265
     32 H          -1.4335   22.1247   10.6147 H       1  LIG1        0.0265
     33 H          -1.2175   22.9242   12.9680 H       1  LIG1        0.0265
     34 H           0.2126   23.3446   12.0504 H       1  LIG1        0.0265
     35 H          -2.1337   25.2025   12.7004 H       1  LIG1        0.0265
     36 H          -0.5350   25.2900   13.3929 H       1  LIG1        0.0265
     37 H           0.4518   25.8639   11.2223 H       1  LIG1        0.0269
     38 H          -0.8463   26.9766   11.5731 H       1  LIG1        0.0269
     39 H           5.2554   25.2427    5.0475 H       1  LIG1        0.0639
     40 H           2.7083   27.4238    8.7079 H       1  LIG1        0.0673
     41 H          -0.1784   32.8770    6.8845 H       1  LIG1        0.1682
     42 H           3.0167   29.2655    5.6333 H       1  LIG1        0.1550
     43 H           4.0234   27.3389    4.5933 H       1  LIG1        0.0637
     44 S           5.4311   23.8790    7.4001 S.O2    1  LIG1        0.0594
     45 O           5.8108   23.2938    6.1199 O.2     1  LIG1       -0.1531
     46 O           6.4234   24.1721    8.4274 O.2     1  LIG1       -0.1531
     47 N           4.3520   22.7432    8.1190 N.3     1  LIG1       -0.2034
     48 H           3.7946   22.1535    7.5176 H       1  LIG1        0.1442
     49 H           4.2201   22.7635    9.1201 H       1  LIG1        0.1442
     50 O           3.9378   25.2278    9.4110 O.3     1  LIG1       -0.4931
     51 C           3.1574   26.0269   10.2715 C.3     1  LIG1        0.0789
     52 H           3.1538   25.5780   11.2963 H       1  LIG1        0.0660
     53 H           3.5899   27.0578   10.3175 H       1  LIG1        0.0660
     54 H           2.1092   26.0792    9.8835 H       1  LIG1        0.0660
@<TRIPOS>BOND
     1     1    14   ar
     2     1    21   ar
     3     1    22    1
     4     2    18   ar
     5     2    19   ar
     6     2    25    1
     7     3     4    1
     8     3    16    1
     9     3    26    1
    10     3    27    1
    11     4     5    1
    12     4     9    1
    13     4    28    1
    14     5     6    1
    15     5    29    1
    16     5    30    1
    17     6     7    1
    18     6    31    1
    19     6    32    1
    20     7     8    1
    21     7    33    1
    22     7    34    1
    23     8     9    1
    24     8    35    1
    25     8    36    1
    26     9    37    1
    27     9    38    1
    28    10    11   ar
    29    10    24   ar
    30    10    39    1
    31    11    12   ar
    32    11    44    1
    33    12    13   ar
    34    12    50    1
    35    13    23   ar
    36    13    40    1
    37    14    15   ar
    38    15    16    1
    39    15    17   ar
    40    17    18   ar
    41    17    20   ar
    42    19    20   ar
    43    19    41    1
    44    20    21   ar
    45    22    23    1
    46    22    42    1
    47    23    24   ar
    48    24    43    1
    49    44    45    2
    50    44    46    2
    51    44    47    1
    52    47    49    1
    53    47    48    1
    54    50    51    1
    55    51    52    1
    56    51    53    1
    57    51    54    1
@<TRIPOS>MOLECULE
1oiu
 50 53 0 0 0
SMALL
GASTEIGER
****
Structure written by MMmdl.
@<TRIPOS>ATOM
      1 C           1.3901   29.1077    6.7935 C.ar    1  LIG1        0.2246
      2 C          -1.6911   31.9130    8.0794 C.ar    1  LIG1        0.0958
      3 C          -0.7437   26.3748    8.8319 C.3     1  LIG1        0.0941
      4 C          -1.3142   25.5567    9.9914 C.3     1  LIG1       -0.0067
      5 C          -1.1214   24.0589    9.6854 C.3     1  LIG1       -0.0471
      6 C          -1.5824   23.1795   10.8502 C.3     1  LIG1       -0.0527
      7 C          -0.8551   23.5463   12.1491 C.3     1  LIG1       -0.0530
      8 C          -1.0780   25.0277   12.4857 C.3     1  LIG1       -0.0527
      9 C          -0.6321   25.9351   11.3273 C.3     1  LIG1       -0.0471
     10 C           4.6903   25.7129    5.8380 C.ar    1  LIG1        0.1068
     11 C           4.6667   25.1395    7.1233 C.ar    1  LIG1       -0.0352
     12 C           3.9496   25.7658    8.1576 C.ar    1  LIG1       -0.0582
     13 C           3.2460   26.9556    7.8985 C.ar    1  LIG1       -0.0404
     14 N           0.6302   28.2313    7.4508 N.ar    1  LIG1       -0.1773
     15 C          -0.4898   28.6252    8.0923 C.ar    1  LIG1        0.2476
     16 O          -1.1796   27.7315    8.8832 O.3     1  LIG1       -0.4745
     17 C          -0.8660   29.9818    8.0000 C.ar    1  LIG1        0.1690
     18 N          -1.9251   30.7129    8.5212 N.ar    1  LIG1       -0.2289
     19 N          -0.5542   32.0464    7.3306 N.ar    1  LIG1       -0.3291
     20 C          -0.0249   30.7863    7.2610 C.ar    1  LIG1        0.1665
     21 N           1.1172   30.4049    6.6113 N.ar    1  LIG1       -0.1946
     22 N           2.5827   28.6807    6.3360 N.pl3   1  LIG1       -0.2834
     23 C           3.2365   27.5251    6.6032 C.ar    1  LIG1        0.0354
     24 C           3.9871   26.9068    5.5819 C.ar    1  LIG1       -0.0141
     25 H          -2.3542   32.7337    8.2866 H       1  LIG1        0.1027
     26 H           0.3421   26.2813    8.8885 H       1  LIG1        0.0700
     27 H          -1.0533   25.9544    7.8735 H       1  LIG1        0.0700
     28 H          -2.3846   25.7536   10.0698 H       1  LIG1        0.0334
     29 H          -1.6745   23.7903    8.7850 H       1  LIG1        0.0269
     30 H          -0.0713   23.8531    9.4740 H       1  LIG1        0.0269
     31 H          -2.6489   23.3294   10.9949 H       1  LIG1        0.0265
     32 H          -1.4335   22.1247   10.6147 H       1  LIG1        0.0265
     33 H          -1.2175   22.9242   12.9680 H       1  LIG1        0.0265
     34 H           0.2126   23.3446   12.0504 H       1  LIG1        0.0265
     35 H          -2.1337   25.2025   12.7004 H       1  LIG1        0.0265
     36 H          -0.5350   25.2900   13.3929 H       1  LIG1        0.0265
     37 H           0.4518   25.8639   11.2223 H       1  LIG1        0.0269
     38 H          -0.8463   26.9766   11.5731 H       1  LIG1        0.0269
     39 H           5.2165   24.2329    7.3224 H       1  LIG1        0.0637
     40 H           3.9402   25.3397    9.1502 H       1  LIG1        0.0619
     41 H           2.7083   27.4238    8.7079 H       1  LIG1        0.0636
     42 H          -0.1784   32.8770    6.8845 H       1  LIG1        0.1682
     43 H           3.0167   29.2655    5.6333 H       1  LIG1        0.1550
     44 H           4.0234   27.3389    4.5933 H       1  LIG1        0.0656
     45 S           5.4755   25.0595    4.7396 S.O2    1  LIG1        0.0560
     46 O           4.8842   23.7521    4.4815 O.2     1  LIG1       -0.1533
     47 O           5.6556   26.0375    3.6734 O.2     1  LIG1       -0.1533
     48 N           7.0609   24.7342    5.3329 N.3     1  LIG1       -0.2035
     49 H           7.2273   23.8701    5.8287 H       1  LIG1        0.1442
     50 H           7.7630   25.4573    5.2675 H       1  LIG1        0.1442
@<TRIPOS>BOND
     1     1    14   ar
     2     1    21   ar
     3     1    22    1
     4     2    18   ar
     5     2    19   ar
     6     2    25    1
     7     3     4    1
     8     3    16    1
     9     3    26    1
    10     3    27    1
    11     4     5    1
    12     4     9    1
    13     4    28    1
    14     5     6    1
    15     5    29    1
    16     5    30    1
    17     6     7    1
    18     6    31    1
    19     6    32    1
    20     7     8    1
    21     7    33    1
    22     7    34    1
    23     8     9    1
    24     8    35    1
    25     8    36    1
    26     9    37    1
    27     9    38    1
    28    10    11   ar
    29    10    24   ar
    30    10    45    1
    31    11    12   ar
    32    11    39    1
    33    12    13   ar
    34    12    40    1
    35    13    23   ar
    36    13    41    1
    37    14    15   ar
    38    15    16    1
    39    15    17   ar
    40    17    18   ar
    41    17    20   ar
    42    19    20   ar
    43    19    42    1
    44    20    21   ar
    45    22    23    1
    46    22    43    1
    47    23    24   ar
    48    24    44    1
    49    45    46    2
    50    45    47    2
    51    45    48    1
    52    48    49    1
    53    48    50    1
@<TRIPOS>MOLECULE
29
 56 59 0 0 0
SMALL
GASTEIGER
****
Structure written by MMmdl.
@<TRIPOS>ATOM
      1 C           1.3901   29.1077    6.7935 C.ar    1  LIG1        0.2246
      2 C          -1.6911   31.9130    8.0794 C.ar    1  LIG1        0.0958
      3 C          -0.7437   26.3748    8.8319 C.3     1  LIG1        0.0941
      4 C          -1.3142   25.5567    9.9914 C.3     1  LIG1       -0.0067
      5 C          -1.1214   24.0589    9.6854 C.3     1  LIG1       -0.0471
      6 C          -1.5824   23.1795   10.8502 C.3     1  LIG1       -0.0527
      7 C          -0.8551   23.5463   12.1491 C.3     1  LIG1       -0.0530
      8 C          -1.0780   25.0277   12.4857 C.3     1  LIG1       -0.0527
      9 C          -0.6321   25.9351   11.3273 C.3     1  LIG1       -0.0471
     10 C           4.6903   25.7129    5.8380 C.ar    1  LIG1       -0.0336
     11 C           4.6667   25.1395    7.1233 C.ar    1  LIG1        0.1056
     12 C           3.9496   25.7658    8.1576 C.ar    1  LIG1       -0.0336
     13 C           3.2460   26.9556    7.8985 C.ar    1  LIG1       -0.0386
     14 N           0.6302   28.2313    7.4508 N.ar    1  LIG1       -0.1773
     15 C          -0.4898   28.6252    8.0923 C.ar    1  LIG1        0.2476
     16 O          -1.1796   27.7315    8.8832 O.3     1  LIG1       -0.4745
     17 C          -0.8660   29.9818    8.0000 C.ar    1  LIG1        0.1690
     18 N          -1.9251   30.7129    8.5212 N.ar    1  LIG1       -0.2289
     19 N          -0.5542   32.0464    7.3306 N.ar    1  LIG1       -0.3291
     20 C          -0.0249   30.7863    7.2610 C.ar    1  LIG1        0.1665
     21 N           1.1172   30.4049    6.6113 N.ar    1  LIG1       -0.1946
     22 N           2.5827   28.6807    6.3360 N.pl3   1  LIG1       -0.2835
     23 C           3.2365   27.5251    6.6032 C.ar    1  LIG1        0.0337
     24 C           3.9871   26.9068    5.5819 C.ar    1  LIG1       -0.0386
     25 H          -2.3542   32.7337    8.2866 H       1  LIG1        0.1027
     26 H           0.3421   26.2813    8.8885 H       1  LIG1        0.0700
     27 H          -1.0533   25.9544    7.8735 H       1  LIG1        0.0700
     28 H          -2.3846   25.7536   10.0698 H       1  LIG1        0.0334
     29 H          -1.6745   23.7903    8.7850 H       1  LIG1        0.0269
     30 H          -0.0713   23.8531    9.4740 H       1  LIG1        0.0269
     31 H          -2.6489   23.3294   10.9949 H       1  LIG1        0.0265
     32 H          -1.4335   22.1247   10.6147 H       1  LIG1        0.0265
     33 H          -1.2175   22.9242   12.9680 H       1  LIG1        0.0265
     34 H           0.2126   23.3446   12.0504 H       1  LIG1        0.0265
     35 H          -2.1337   25.2025   12.7004 H       1  LIG1        0.0265
     36 H          -0.5350   25.2900   13.3929 H       1  LIG1        0.0265
     37 H           0.4518   25.8639   11.2223 H       1  LIG1        0.0269
     38 H          -0.8463   26.9766   11.5731 H       1  LIG1        0.0269
     39 H           5.2554   25.2427    5.0475 H       1  LIG1        0.0638
     40 H           3.9402   25.3397    9.1502 H       1  LIG1        0.0638
     41 H           2.7083   27.4238    8.7079 H       1  LIG1        0.0637
     42 H          -0.1784   32.8770    6.8845 H       1  LIG1        0.1682
     43 H           3.0167   29.2655    5.6333 H       1  LIG1        0.1550
     44 H           4.0234   27.3389    4.5933 H       1  LIG1        0.0637
     45 S           5.4311   23.8790    7.4001 S.O2    1  LIG1        0.0604
     46 O           5.8108   23.2938    6.1199 O.2     1  LIG1       -0.1529
     47 O           6.4234   24.1721    8.4274 O.2     1  LIG1       -0.1529
     48 N           4.4921   22.8906    8.0257 N.3     1  LIG1       -0.1827
     49 C           3.8604   21.8742    7.2087 C.3     1  LIG1        0.0086
     50 H           4.1949   21.9880    6.1470 H       1  LIG1        0.0408
     51 H           4.1498   20.8607    7.5843 H       1  LIG1        0.0408
     52 H           2.7488   21.9890    7.2639 H       1  LIG1        0.0408
     53 C           4.2167   22.9522    9.4469 C.3     1  LIG1        0.0086
     54 H           3.4990   22.1395    9.7233 H       1  LIG1        0.0408
     55 H           5.1697   22.8182   10.0177 H       1  LIG1        0.0408
     56 H           3.7687   23.9465    9.6972 H       1  LIG1        0.0408
@<TRIPOS>BOND
     1     1    14   ar
     2     1    21   ar
     3     1    22    1
     4     2    18   ar
     5     2    19   ar
     6     2    25    1
     7     3     4    1
     8     3    16    1
     9     3    26    1
    10     3    27    1
    11     4     5    1
    12     4     9    1
    13     4    28    1
    14     5     6    1
    15     5    29    1
    16     5    30    1
    17     6     7    1
    18     6    31    1
    19     6    32    1
    20     7     8    1
    21     7    33    1
    22     7    34    1
    23     8     9    1
    24     8    35    1
    25     8    36    1
    26     9    37    1
    27     9    38    1
    28    10    11   ar
    29    10    24   ar
    30    10    39    1
    31    11    12   ar
    32    11    45    1
    33    12    13   ar
    34    12    40    1
    35    13    23   ar
    36    13    41    1
    37    14    15   ar
    38    15    16    1
    39    15    17   ar
    40    17    18   ar
    41    17    20   ar
    42    19    20   ar
    43    19    42    1
    44    20    21   ar
    45    22    23    1
    46    22    43    1
    47    23    24   ar
    48    24    44    1
    49    45    46    2
    50    45    47    2
    51    45    48    1
    52    48    49    1
    53    48    53    1
    54    49    50    1
    55    49    51    1
    56    49    52    1
    57    53    54    1
    58    53    55    1
    59    53    56    1
@<TRIPOS>MOLECULE
1h1r
 45 48 0 0 0
SMALL
GASTEIGER
****
Structure written by MMmdl.
@<TRIPOS>ATOM
      1 C           1.3901   29.1077    6.7935 C.ar    1  LIG1        0.2246
      2 C          -1.6911   31.9130    8.0794 C.ar    1  LIG1        0.0958
      3 C          -0.7437   26.3748    8.8319 C.3     1  LIG1        0.0941
      4 C          -1.3142   25.5567    9.9914 C.3     1  LIG1       -0.0067
      5 C          -1.1214   24.0589    9.6854 C.3     1  LIG1       -0.0471
      6 C          -1.5824   23.1795   10.8502 C.3     1  LIG1       -0.0527
      7 C          -0.8551   23.5463   12.1491 C.3     1  LIG1       -0.0530
      8 C          -1.0780   25.0277   12.4857 C.3     1  LIG1       -0.0527
      9 C          -0.6321   25.9351   11.3273 C.3     1  LIG1       -0.0471
     10 C           4.6903   25.7129    5.8380 C.ar    1  LIG1       -0.0586
     11 C           4.6667   25.1395    7.1233 C.ar    1  LIG1       -0.0433
     12 C           3.9496   25.7658    8.1576 C.ar    1  LIG1        0.0427
     13 C           3.2460   26.9556    7.8985 C.ar    1  LIG1       -0.0221
     14 N           0.6302   28.2313    7.4508 N.ar    1  LIG1       -0.1773
     15 C          -0.4898   28.6252    8.0923 C.ar    1  LIG1        0.2476
     16 O          -1.1796   27.7315    8.8832 O.3     1  LIG1       -0.4745
     17 C          -0.8660   29.9818    8.0000 C.ar    1  LIG1        0.1690
     18 N          -1.9251   30.7129    8.5212 N.ar    1  LIG1       -0.2289
     19 N          -0.5542   32.0464    7.3306 N.ar    1  LIG1       -0.3291
     20 C          -0.0249   30.7863    7.2610 C.ar    1  LIG1        0.1665
     21 N           1.1172   30.4049    6.6113 N.ar    1  LIG1       -0.1946
     22 N           2.5827   28.6807    6.3360 N.pl3   1  LIG1       -0.2834
     23 C           3.2365   27.5251    6.6032 C.ar    1  LIG1        0.0350
     24 C           3.9871   26.9068    5.5819 C.ar    1  LIG1       -0.0404
     25 H          -2.3542   32.7337    8.2866 H       1  LIG1        0.1027
     26 H           0.3421   26.2813    8.8885 H       1  LIG1        0.0700
     27 H          -1.0533   25.9544    7.8735 H       1  LIG1        0.0700
     28 H          -2.3846   25.7536   10.0698 H       1  LIG1        0.0334
     29 H          -1.6745   23.7903    8.7850 H       1  LIG1        0.0269
     30 H          -0.0713   23.8531    9.4740 H       1  LIG1        0.0269
     31 H          -2.6489   23.3294   10.9949 H       1  LIG1        0.0265
     32 H          -1.4335   22.1247   10.6147 H       1  LIG1        0.0265
     33 H          -1.2175   22.9242   12.9680 H       1  LIG1        0.0265
     34 H           0.2126   23.3446   12.0504 H       1  LIG1        0.0265
     35 H          -2.1337   25.2025   12.7004 H       1  LIG1        0.0265
     36 H          -0.5350   25.2900   13.3929 H       1  LIG1        0.0265
     37 H           0.4518   25.8639   11.2223 H       1  LIG1        0.0269
     38 H          -0.8463   26.9766   11.5731 H       1  LIG1        0.0269
     39 H           5.2554   25.2427    5.0475 H       1  LIG1        0.0619
     40 H           5.2165   24.2329    7.3224 H       1  LIG1        0.0632
     41 H           2.7083   27.4238    8.7079 H       1  LIG1        0.0651
     42 H          -0.1784   32.8770    6.8845 H       1  LIG1        0.1682
     43 H           3.0167   29.2655    5.6333 H       1  LIG1        0.1550
     44 H           4.0234   27.3389    4.5933 H       1  LIG1        0.0636
     45 CL          3.9346   25.0834    9.7473 Cl      1  LIG1       -0.0835
@<TRIPOS>BOND
     1     1    14   ar
     2     1    21   ar
     3     1    22    1
     4     2    18   ar
     5     2    19   ar
     6     2    25    1
     7     3     4    1
     8     3    16    1
     9     3    26    1
    10     3    27    1
    11     4     5    1
    12     4     9    1
    13     4    28    1
    14     5     6    1
    15     5    29    1
    16     5    30    1
    17     6     7    1
    18     6    31    1
    19     6    32    1
    20     7     8    1
    21     7    33    1
    22     7    34    1
    23     8     9    1
    24     8    35    1
    25     8    36    1
    26     9    37    1
    27     9    38    1
    28    10    11   ar
    29    10    24   ar
    30    10    39    1
    31    11    12   ar
    32    11    40    1
    33    12    13   ar
    34    12    45    1
    35    13    23   ar
    36    13    41    1
    37    14    15   ar
    38    15    16    1
    39    15    17   ar
    40    17    18   ar
    41    17    20   ar
    42    19    20   ar
    43    19    42    1
    44    20    21   ar
    45    22    23    1
    46    22    43    1
    47    23    24   ar
    48    24    44    1
@<TRIPOS>MOLECULE
21
 49 52 0 0 0
SMALL
GASTEIGER
****
Structure written by MMmdl.
@<TRIPOS>ATOM
      1 C           1.3901   29.1077    6.7935 C.ar    1  LIG1        0.2246
      2 C          -1.6911   31.9130    8.0794 C.ar    1  LIG1        0.0958
      3 C          -0.7437   26.3748    8.8319 C.3     1  LIG1        0.0941
      4 C          -1.3142   25.5567    9.9914 C.3     1  LIG1       -0.0067
      5 C          -1.1214   24.0589    9.6854 C.3     1  LIG1       -0.0471
      6 C          -1.5824   23.1795   10.8502 C.3     1  LIG1       -0.0527
      7 C          -0.8551   23.5463   12.1491 C.3     1  LIG1       -0.0530
      8 C          -1.0780   25.0277   12.4857 C.3     1  LIG1       -0.0527
      9 C          -0.6321   25.9351   11.3273 C.3     1  LIG1       -0.0471
     10 C           4.6903   25.7129    5.8380 C.ar    1  LIG1       -0.0566
     11 C           4.6667   25.1395    7.1233 C.ar    1  LIG1       -0.0198
     12 C           3.9496   25.7658    8.1576 C.ar    1  LIG1        0.1219
     13 C           3.2460   26.9556    7.8985 C.ar    1  LIG1        0.0013
     14 N           0.6302   28.2313    7.4508 N.ar    1  LIG1       -0.1773
     15 C          -0.4898   28.6252    8.0923 C.ar    1  LIG1        0.2476
     16 O          -1.1796   27.7315    8.8832 O.3     1  LIG1       -0.4745
     17 C          -0.8660   29.9818    8.0000 C.ar    1  LIG1        0.1690
     18 N          -1.9251   30.7129    8.5212 N.ar    1  LIG1       -0.2289
     19 N          -0.5542   32.0464    7.3306 N.ar    1  LIG1       -0.3291
     20 C          -0.0249   30.7863    7.2610 C.ar    1  LIG1        0.1665
     21 N           1.1172   30.4049    6.6113 N.ar    1  LIG1       -0.1946
     22 N           2.5827   28.6807    6.3360 N.pl3   1  LIG1       -0.2834
     23 C           3.2365   27.5251    6.6032 C.ar    1  LIG1        0.0370
     24 C           3.9871   26.9068    5.5819 C.ar    1  LIG1       -0.0402
     25 H          -2.3542   32.7337    8.2866 H       1  LIG1        0.1027
     26 H           0.3421   26.2813    8.8885 H       1  LIG1        0.0700
     27 H          -1.0533   25.9544    7.8735 H       1  LIG1        0.0700
     28 H          -2.3846   25.7536   10.0698 H       1  LIG1        0.0334
     29 H          -1.6745   23.7903    8.7850 H       1  LIG1        0.0269
     30 H          -0.0713   23.8531    9.4740 H       1  LIG1        0.0269
     31 H          -2.6489   23.3294   10.9949 H       1  LIG1        0.0265
     32 H          -1.4335   22.1247   10.6147 H       1  LIG1        0.0265
     33 H          -1.2175   22.9242   12.9680 H       1  LIG1        0.0265
     34 H           0.2126   23.3446   12.0504 H       1  LIG1        0.0265
     35 H          -2.1337   25.2025   12.7004 H       1  LIG1        0.0265
     36 H          -0.5350   25.2900   13.3929 H       1  LIG1        0.0265
     37 H           0.4518   25.8639   11.2223 H       1  LIG1        0.0269
     38 H          -0.8463   26.9766   11.5731 H       1  LIG1        0.0269
     39 H           5.2554   25.2427    5.0475 H       1  LIG1        0.0619
     40 H           5.2165   24.2329    7.3224 H       1  LIG1        0.0654
     41 H           2.7083   27.4238    8.7079 H       1  LIG1        0.0673
     42 H          -0.1784   32.8770    6.8845 H       1  LIG1        0.1682
     43 H           3.0167   29.2655    5.6333 H       1  LIG1        0.1550
     44 H           4.0234   27.3389    4.5933 H       1  LIG1        0.0636
     45 O           3.9378   25.2278    9.4110 O.3     1  LIG1       -0.4951
     46 C           3.1574   26.0269   10.2715 C.3     1  LIG1        0.0788
     47 H           3.1538   25.5780   11.2963 H       1  LIG1        0.0660
     48 H           3.5899   27.0578   10.3175 H       1  LIG1        0.0660
     49 H           2.1092   26.0792    9.8835 H       1  LIG1        0.0660
@<TRIPOS>BOND
     1     1    14   ar
     2     1    21   ar
     3     1    22    1
     4     2    18   ar
     5     2    19   ar
     6     2    25    1
     7     3     4    1
     8     3    16    1
     9     3    26    1
    10     3    27    1
    11     4     5    1
    12     4     9    1
    13     4    28    1
    14     5     6    1
    15     5    29    1
    16     5    30    1
    17     6     7    1
    18     6    31    1
    19     6    32    1
    20     7     8    1
    21     7    33    1
    22     7    34    1
    23     8     9    1
    24     8    35    1
    25     8    36    1
    26     9    37    1
    27     9    38    1
    28    10    11   ar
    29    10    24   ar
    30    10    39    1
    31    11    12   ar
    32    11    40    1
    33    12    13   ar
    34    12    45    1
    35    13    23   ar
    36    13    41    1
    37    14    15   ar
    38    15    16    1
    39    15    17   ar
    40    17    18   ar
    41    17    20   ar
    42    19    20   ar
    43    19    42    1
    44    20    21   ar
    45    22    23    1
    46    22    43    1
    47    23    24   ar
    48    24    44    1
    49    45    46    1
    50    46    47    1
    51    46    48    1
    52    46    49    1
@<TRIPOS>MOLECULE
26
 49 52 0 0 0
SMALL
GASTEIGER
****
Structure written by MMmdl.
@<TRIPOS>ATOM
      1 C           1.3901   29.1077    6.7935 C.ar    1  LIG1        0.2246
      2 C          -1.6911   31.9130    8.0794 C.ar    1  LIG1        0.0958
      3 C          -0.7437   26.3748    8.8319 C.3     1  LIG1        0.0941
      4 C          -1.3142   25.5567    9.9914 C.3     1  LIG1       -0.0067
      5 C          -1.1214   24.0589    9.6854 C.3     1  LIG1       -0.0471
      6 C          -1.5824   23.1795   10.8502 C.3     1  LIG1       -0.0527
      7 C          -0.8551   23.5463   12.1491 C.3     1  LIG1       -0.0530
      8 C          -1.0780   25.0277   12.4857 C.3     1  LIG1       -0.0527
      9 C          -0.6321   25.9351   11.3273 C.3     1  LIG1       -0.0471
     10 C           4.6903   25.7129    5.8380 C.ar    1  LIG1       -0.0182
     11 C           4.6667   25.1395    7.1233 C.ar    1  LIG1        0.1202
     12 C           3.9496   25.7658    8.1576 C.ar    1  LIG1       -0.0182
     13 C           3.2460   26.9556    7.8985 C.ar    1  LIG1       -0.0370
     14 N           0.6302   28.2313    7.4508 N.ar    1  LIG1       -0.1773
     15 C          -0.4898   28.6252    8.0923 C.ar    1  LIG1        0.2476
     16 O          -1.1796   27.7315    8.8832 O.3     1  LIG1       -0.4745
     17 C          -0.8660   29.9818    8.0000 C.ar    1  LIG1        0.1690
     18 N          -1.9251   30.7129    8.5212 N.ar    1  LIG1       -0.2289
     19 N          -0.5542   32.0464    7.3306 N.ar    1  LIG1       -0.3291
     20 C          -0.0249   30.7863    7.2610 C.ar    1  LIG1        0.1665
     21 N           1.1172   30.4049    6.6113 N.ar    1  LIG1       -0.1946
     22 N           2.5827   28.6807    6.3360 N.pl3   1  LIG1       -0.2835
     23 C           3.2365   27.5251    6.6032 C.ar    1  LIG1        0.0338
     24 C           3.9871   26.9068    5.5819 C.ar    1  LIG1       -0.0370
     25 H          -2.3542   32.7337    8.2866 H       1  LIG1        0.1027
     26 H           0.3421   26.2813    8.8885 H       1  LIG1        0.0700
     27 H          -1.0533   25.9544    7.8735 H       1  LIG1        0.0700
     28 H          -2.3846   25.7536   10.0698 H       1  LIG1        0.0334
     29 H          -1.6745   23.7903    8.7850 H       1  LIG1        0.0269
     30 H          -0.0713   23.8531    9.4740 H       1  LIG1        0.0269
     31 H          -2.6489   23.3294   10.9949 H       1  LIG1        0.0265
     32 H          -1.4335   22.1247   10.6147 H       1  LIG1        0.0265
     33 H          -1.2175   22.9242   12.9680 H       1  LIG1        0.0265
     34 H           0.2126   23.3446   12.0504 H       1  LIG1        0.0265
     35 H          -2.1337   25.2025   12.7004 H       1  LIG1        0.0265
     36 H          -0.5350   25.2900   13.3929 H       1  LIG1        0.0265
     37 H           0.4518   25.8639   11.2223 H       1  LIG1        0.0269
     38 H          -0.8463   26.9766   11.5731 H       1  LIG1        0.0269
     39 H           5.2554   25.2427    5.0475 H       1  LIG1        0.0655
     40 H           3.9402   25.3397    9.1502 H       1  LIG1        0.0655
     41 H           2.7083   27.4238    8.7079 H       1  LIG1        0.0637
     42 H          -0.1784   32.8770    6.8845 H       1  LIG1        0.1682
     43 H           3.0167   29.2655    5.6333 H       1  LIG1        0.1550
     44 H           4.0234   27.3389    4.5933 H       1  LIG1        0.0637
     45 O           5.3618   23.9933    7.3750 O.3     1  LIG1       -0.4951
     46 C           5.1896   23.6106    8.7211 C.3     1  LIG1        0.0788
     47 H           5.7631   22.6702    8.9179 H       1  LIG1        0.0660
     48 H           5.5658   24.4239    9.3912 H       1  LIG1        0.0660
     49 H           4.1033   23.4340    8.9226 H       1  LIG1        0.0660
@<TRIPOS>BOND
     1     1    14   ar
     2     1    21   ar
     3     1    22    1
     4     2    18   ar
     5     2    19   ar
     6     2    25    1
     7     3     4    1
     8     3    16    1
     9     3    26    1
    10     3    27    1
    11     4     5    1
    12     4     9    1
    13     4    28    1
    14     5     6    1
    15     5    29    1
    16     5    30    1
    17     6     7    1
    18     6    31    1
    19     6    32    1
    20     7     8    1
    21     7    33    1
    22     7    34    1
    23     8     9    1
    24     8    35    1
    25     8    36    1
    26     9    37    1
    27     9    38    1
    28    10    11   ar
    29    10    24   ar
    30    10    39    1
    31    11    12   ar
    32    11    45    1
    33    12    13   ar
    34    12    40    1
    35    13    23   ar
    36    13    41    1
    37    14    15   ar
    38    15    16    1
    39    15    17   ar
    40    17    18   ar
    41    17    20   ar
    42    19    20   ar
    43    19    42    1
    44    20    21   ar
    45    22    23    1
    46    22    43    1
    47    23    24   ar
    48    24    44    1
    49    45    46    1
    50    46    47    1
    51    46    48    1
    52    46    49    1
@<TRIPOS>MOLECULE
1h1s
 50 53 0 0 0
SMALL
GASTEIGER
****
Structure written by MMmdl.
@<TRIPOS>ATOM
      1 C           1.3901   29.1077    6.7935 C.ar    1  LIG1        0.2246
      2 C          -1.6911   31.9130    8.0794 C.ar    1  LIG1        0.0958
      3 C          -0.7437   26.3748    8.8319 C.3     1  LIG1        0.0941
      4 C          -1.3142   25.5567    9.9914 C.3     1  LIG1       -0.0067
      5 C          -1.1214   24.0589    9.6854 C.3     1  LIG1       -0.0471
      6 C          -1.5824   23.1795   10.8502 C.3     1  LIG1       -0.0527
      7 C          -0.8551   23.5463   12.1491 C.3     1  LIG1       -0.0530
      8 C          -1.0780   25.0277   12.4857 C.3     1  LIG1       -0.0527
      9 C          -0.6321   25.9351   11.3273 C.3     1  LIG1       -0.0471
     10 C           4.6903   25.7129    5.8380 C.ar    1  LIG1       -0.0336
     11 C           4.6667   25.1395    7.1233 C.ar    1  LIG1        0.1051
     12 C           3.9496   25.7658    8.1576 C.ar    1  LIG1       -0.0336
     13 C           3.2460   26.9556    7.8985 C.ar    1  LIG1       -0.0386
     14 N           0.6302   28.2313    7.4508 N.ar    1  LIG1       -0.1773
     15 C          -0.4898   28.6252    8.0923 C.ar    1  LIG1        0.2476
     16 O          -1.1796   27.7315    8.8832 O.3     1  LIG1       -0.4745
     17 C          -0.8660   29.9818    8.0000 C.ar    1  LIG1        0.1690
     18 N          -1.9251   30.7129    8.5212 N.ar    1  LIG1       -0.2289
     19 N          -0.5542   32.0464    7.3306 N.ar    1  LIG1       -0.3291
     20 C          -0.0249   30.7863    7.2610 C.ar    1  LIG1        0.1665
     21 N           1.1172   30.4049    6.6113 N.ar    1  LIG1       -0.1946
     22 N           2.5827   28.6807    6.3360 N.pl3   1  LIG1       -0.2835
     23 C           3.2365   27.5251    6.6032 C.ar    1  LIG1        0.0337
     24 C           3.9871   26.9068    5.5819 C.ar    1  LIG1       -0.0386
     25 H          -2.3542   32.7337    8.2866 H       1  LIG1        0.1027
     26 H           0.3421   26.2813    8.8885 H       1  LIG1        0.0700
     27 H          -1.0533   25.9544    7.8735 H       1  LIG1        0.0700
     28 H          -2.3846   25.7536   10.0698 H       1  LIG1        0.0334
     29 H          -1.6745   23.7903    8.7850 H       1  LIG1        0.0269
     30 H          -0.0713   23.8531    9.4740 H       1  LIG1        0.0269
     31 H          -2.6489   23.3294   10.9949 H       1  LIG1        0.0265
     32 H          -1.4335   22.1247   10.6147 H       1  LIG1        0.0265
     33 H          -1.2175   22.9242   12.9680 H       1  LIG1        0.0265
     34 H           0.2126   23.3446   12.0504 H       1  LIG1        0.0265
     35 H          -2.1337   25.2025   12.7004 H       1  LIG1        0.0265
     36 H          -0.5350   25.2900   13.3929 H       1  LIG1        0.0265
     37 H           0.4518   25.8639   11.2223 H       1  LIG1        0.0269
     38 H          -0.8463   26.9766   11.5731 H       1  LIG1        0.0269
     39 H           5.2554   25.2427    5.0475 H       1  LIG1        0.0638
     40 H           3.9402   25.3397    9.1502 H       1  LIG1        0.0638
     41 H           2.7083   27.4238    8.7079 H       1  LIG1        0.0637
     42 H          -0.1784   32.8770    6.8845 H       1  LIG1        0.1682
     43 H           3.0167   29.2655    5.6333 H       1  LIG1        0.1550
     44 H           4.0234   27.3389    4.5933 H       1  LIG1        0.0637
     45 S           5.4311   23.8790    7.4001 S.O2    1  LIG1        0.0559
     46 O           5.8108   23.2938    6.1199 O.2     1  LIG1       -0.1533
     47 O           6.4234   24.1721    8.4274 O.2     1  LIG1       -0.1533
     48 N           4.3520   22.7432    8.1190 N.3     1  LIG1       -0.2035
     49 H           3.7946   22.1535    7.5176 H       1  LIG1        0.1442
     50 H           4.2201   22.7635    9.1201 H       1  LIG1        0.1442
@<TRIPOS>BOND
     1     1    14   ar
     2     1    21   ar
     3     1    22    1
     4     2    18   ar
     5     2    19   ar
     6     2    25    1
     7     3     4    1
     8     3    16    1
     9     3    26    1
    10     3    27    1
    11     4     5    1
    12     4     9    1
    13     4    28    1
    14     5     6    1
    15     5    29    1
    16     5    30    1
    17     6     7    1
    18     6    31    1
    19     6    32    1
    20     7     8    1
    21     7    33    1
    22     7    34    1
    23     8     9    1
    24     8    35    1
    25     8    36    1
    26     9    37    1
    27     9    38    1
    28    10    11   ar
    29    10    24   ar
    30    10    39    1
    31    11    12   ar
    32    11    45    1
    33    12    13   ar
    34    12    40    1
    35    13    23   ar
    36    13    41    1
    37    14    15   ar
    38    15    16    1
    39    15    17   ar
    40    17    18   ar
    41    17    20   ar
    42    19    20   ar
    43    19    42    1
    44    20    21   ar
    45    22    23    1
    46    22    43    1
    47    23    24   ar
    48    24    44    1
    49    45    46    2
    50    45    47    2
    51    45    48    1
    52    48    49    1
    53    48    50    1
@<TRIPOS>MOLECULE
31
 50 53 0 0 0
SMALL
GASTEIGER
****
Structure written by MMmdl.
@<TRIPOS>ATOM
      1 C           1.3901   29.1077    6.7935 C.ar    1  LIG1        0.2246
      2 C          -1.6911   31.9130    8.0794 C.ar    1  LIG1        0.0958
      3 C          -0.7437   26.3748    8.8319 C.3     1  LIG1        0.0941
      4 C          -1.3142   25.5567    9.9914 C.3     1  LIG1       -0.0067
      5 C          -1.1214   24.0589    9.6854 C.3     1  LIG1       -0.0471
      6 C          -1.5824   23.1795   10.8502 C.3     1  LIG1       -0.0527
      7 C          -0.8551   23.5463   12.1491 C.3     1  LIG1       -0.0530
      8 C          -1.0780   25.0277   12.4857 C.3     1  LIG1       -0.0527
      9 C          -0.6321   25.9351   11.3273 C.3     1  LIG1       -0.0471
     10 C           4.6903   25.7129    5.8380 C.ar    1  LIG1       -0.0442
     11 C           4.6667   25.1395    7.1233 C.ar    1  LIG1        0.0387
     12 C           3.9496   25.7658    8.1576 C.ar    1  LIG1       -0.0442
     13 C           3.2460   26.9556    7.8985 C.ar    1  LIG1       -0.0394
     14 N           0.6302   28.2313    7.4508 N.ar    1  LIG1       -0.1773
     15 C          -0.4898   28.6252    8.0923 C.ar    1  LIG1        0.2476
     16 O          -1.1796   27.7315    8.8832 O.3     1  LIG1       -0.4745
     17 C          -0.8660   29.9818    8.0000 C.ar    1  LIG1        0.1690
     18 N          -1.9251   30.7129    8.5212 N.ar    1  LIG1       -0.2289
     19 N          -0.5542   32.0464    7.3306 N.ar    1  LIG1       -0.3291
     20 C          -0.0249   30.7863    7.2610 C.ar    1  LIG1        0.1665
     21 N           1.1172   30.4049    6.6113 N.ar    1  LIG1       -0.1946
     22 N           2.5827   28.6807    6.3360 N.pl3   1  LIG1       -0.2835
     23 C           3.2365   27.5251    6.6032 C.ar    1  LIG1        0.0336
     24 C           3.9871   26.9068    5.5819 C.ar    1  LIG1       -0.0394
     25 H          -2.3542   32.7337    8.2866 H       1  LIG1        0.1027
     26 H           0.3421   26.2813    8.8885 H       1  LIG1        0.0700
     27 H          -1.0533   25.9544    7.8735 H       1  LIG1        0.0700
     28 H          -2.3846   25.7536   10.0698 H       1  LIG1        0.0334
     29 H          -1.6745   23.7903    8.7850 H       1  LIG1        0.0269
     30 H          -0.0713   23.8531    9.4740 H       1  LIG1        0.0269
     31 H          -2.6489   23.3294   10.9949 H       1  LIG1        0.0265
     32 H          -1.4335   22.1247   10.6147 H       1  LIG1        0.0265
     33 H          -1.2175   22.9242   12.9680 H       1  LIG1        0.0265
     34 H           0.2126   23.3446   12.0504 H       1  LIG1        0.0265
     35 H          -2.1337   25.2025   12.7004 H       1  LIG1        0.0265
     36 H          -0.5350   25.2900   13.3929 H       1  LIG1        0.0265
     37 H           0.4518   25.8639   11.2223 H       1  LIG1        0.0269
     38 H          -0.8463   26.9766   11.5731 H       1  LIG1        0.0269
     39 H           5.2554   25.2427    5.0475 H       1  LIG1        0.0630
     40 H           3.9402   25.3397    9.1502 H       1  LIG1        0.0630
     41 H           2.7083   27.4238    8.7079 H       1  LIG1        0.0636
     42 H          -0.1784   32.8770    6.8845 H       1  LIG1        0.1682
     43 H           3.0167   29.2655    5.6333 H       1  LIG1        0.1550
     44 H           4.0234   27.3389    4.5933 H       1  LIG1        0.0636
     45 S           5.4311   23.8790    7.4001 S.O     1  LIG1        0.0507
     46 O           6.1203   23.3067    6.4581 O.2     1  LIG1       -0.2524
     47 C           5.3902   23.2873    8.7779 C.3     1  LIG1        0.0163
     48 H           4.7484   23.9231    9.4380 H       1  LIG1        0.0368
     49 H           4.9646   22.2537    8.7275 H       1  LIG1        0.0368
     50 H           6.4272   23.2436    9.1960 H       1  LIG1        0.0368
@<TRIPOS>BOND
     1     1    14   ar
     2     1    21   ar
     3     1    22    1
     4     2    18   ar
     5     2    19   ar
     6     2    25    1
     7     3     4    1
     8     3    16    1
     9     3    26    1
    10     3    27    1
    11     4     5    1
    12     4     9    1
    13     4    28    1
    14     5     6    1
    15     5    29    1
    16     5    30    1
    17     6     7    1
    18     6    31    1
    19     6    32    1
    20     7     8    1
    21     7    33    1
    22     7    34    1
    23     8     9    1
    24     8    35    1
    25     8    36    1
    26     9    37    1
    27     9    38    1
    28    10    11   ar
    29    10    24   ar
    30    10    39    1
    31    11    12   ar
    32    11    45    1
    33    12    13   ar
    34    12    40    1
    35    13    23   ar
    36    13    41    1
    37    14    15   ar
    38    15    16    1
    39    15    17   ar
    40    17    18   ar
    41    17    20   ar
    42    19    20   ar
    43    19    42    1
    44    20    21   ar
    45    22    23    1
    46    22    43    1
    47    23    24   ar
    48    24    44    1
    49    45    46    2
    50    45    47    1
    51    47    48    1
    52    47    49    1
    53    47    50    1
@<TRIPOS>MOLECULE
20
 49 52 0 0 0
SMALL
GASTEIGER
****
Structure written by MMmdl.
@<TRIPOS>ATOM
      1 C           1.3901   29.1077    6.7935 C.ar    1  LIG1        0.2246
      2 C          -1.6911   31.9130    8.0794 C.ar    1  LIG1        0.0958
      3 C          -0.7437   26.3748    8.8319 C.3     1  LIG1        0.0941
      4 C          -1.3142   25.5567    9.9914 C.3     1  LIG1       -0.0067
      5 C          -1.1214   24.0589    9.6854 C.3     1  LIG1       -0.0471
      6 C          -1.5824   23.1795   10.8502 C.3     1  LIG1       -0.0527
      7 C          -0.8551   23.5463   12.1491 C.3     1  LIG1       -0.0530
      8 C          -1.0780   25.0277   12.4857 C.3     1  LIG1       -0.0527
      9 C          -0.6321   25.9351   11.3273 C.3     1  LIG1       -0.0471
     10 C           4.6903   25.7129    5.8380 C.ar    1  LIG1       -0.0204
     11 C           4.6667   25.1395    7.1233 C.ar    1  LIG1       -0.0563
     12 C           3.9496   25.7658    8.1576 C.ar    1  LIG1       -0.0597
     13 C           3.2460   26.9556    7.8985 C.ar    1  LIG1       -0.0405
     14 N           0.6302   28.2313    7.4508 N.ar    1  LIG1       -0.1773
     15 C          -0.4898   28.6252    8.0923 C.ar    1  LIG1        0.2476
     16 O          -1.1796   27.7315    8.8832 O.3     1  LIG1       -0.4745
     17 C          -0.8660   29.9818    8.0000 C.ar    1  LIG1        0.1690
     18 N          -1.9251   30.7129    8.5212 N.ar    1  LIG1       -0.2289
     19 N          -0.5542   32.0464    7.3306 N.ar    1  LIG1       -0.3291
     20 C          -0.0249   30.7863    7.2610 C.ar    1  LIG1        0.1665
     21 N           1.1172   30.4049    6.6113 N.ar    1  LIG1       -0.1946
     22 N           2.5827   28.6807    6.3360 N.pl3   1  LIG1       -0.2835
     23 C           3.2365   27.5251    6.6032 C.ar    1  LIG1        0.0339
     24 C           3.9871   26.9068    5.5819 C.ar    1  LIG1       -0.0351
     25 H          -2.3542   32.7337    8.2866 H       1  LIG1        0.1027
     26 H           0.3421   26.2813    8.8885 H       1  LIG1        0.0700
     27 H          -1.0533   25.9544    7.8735 H       1  LIG1        0.0700
     28 H          -2.3846   25.7536   10.0698 H       1  LIG1        0.0334
     29 H          -1.6745   23.7903    8.7850 H       1  LIG1        0.0269
     30 H          -0.0713   23.8531    9.4740 H       1  LIG1        0.0269
     31 H          -2.6489   23.3294   10.9949 H       1  LIG1        0.0265
     32 H          -1.4335   22.1247   10.6147 H       1  LIG1        0.0265
     33 H          -1.2175   22.9242   12.9680 H       1  LIG1        0.0265
     34 H           0.2126   23.3446   12.0504 H       1  LIG1        0.0265
     35 H          -2.1337   25.2025   12.7004 H       1  LIG1        0.0265
     36 H          -0.5350   25.2900   13.3929 H       1  LIG1        0.0265
     37 H           0.4518   25.8639   11.2223 H       1  LIG1        0.0269
     38 H          -0.8463   26.9766   11.5731 H       1  LIG1        0.0269
     39 H           5.2165   24.2329    7.3224 H       1  LIG1        0.0621
     40 H           3.9402   25.3397    9.1502 H       1  LIG1        0.0618
     41 H           2.7083   27.4238    8.7079 H       1  LIG1        0.0636
     42 H          -0.1784   32.8770    6.8845 H       1  LIG1        0.1682
     43 H           3.0167   29.2655    5.6333 H       1  LIG1        0.1550
     44 H           4.0234   27.3389    4.5933 H       1  LIG1        0.0639
     45 C           5.4871   25.0499    4.7235 C.3     1  LIG1        0.0693
     46 H           5.3633   25.6590    3.8281 H       1  LIG1        0.0607
     47 H           6.5286   25.0171    5.0431 H       1  LIG1        0.0607
     48 O           4.9612   23.7541    4.5433 O.3     1  LIG1       -0.3904
     49 H           5.1091   23.2899    5.3674 H       1  LIG1        0.2098
@<TRIPOS>BOND
     1     1    14   ar
     2     1    21   ar
     3     1    22    1
     4     2    18   ar
     5     2    19   ar
     6     2    25    1
     7     3     4    1
     8     3    16    1
     9     3    26    1
    10     3    27    1
    11     4     5    1
    12     4     9    1
    13     4    28    1
    14     5     6    1
    15     5    29    1
    16     5    30    1
    17     6     7    1
    18     6    31    1
    19     6    32    1
    20     7     8    1
    21     7    33    1
    22     7    34    1
    23     8     9    1
    24     8    35    1
    25     8    36    1
    26     9    37    1
    27     9    38    1
    28    10    11   ar
    29    10    24   ar
    30    10    45    1
    31    11    12   ar
    32    11    39    1
    33    12    13   ar
    34    12    40    1
    35    13    23   ar
    36    13    41    1
    37    14    15   ar
    38    15    16    1
    39    15    17   ar
    40    17    18   ar
    41    17    20   ar
    42    19    20   ar
    43    19    42    1
    44    20    21   ar
    45    22    23    1
    46    22    43    1
    47    23    24   ar
    48    24    44    1
    49    45    46    1
    50    45    47    1
    51    45    48    1
    52    48    49    1
@<TRIPOS>MOLECULE
22
 49 52 0 0 0
SMALL
GASTEIGER
****
Structure written by MMmdl.
@<TRIPOS>ATOM
      1 C           1.3901   29.1077    6.7935 C.ar    1  LIG1        0.2246
      2 C          -1.6911   31.9130    8.0794 C.ar    1  LIG1        0.0958
      3 C          -0.7437   26.3748    8.8319 C.3     1  LIG1        0.0941
      4 C          -1.3142   25.5567    9.9914 C.3     1  LIG1       -0.0067
      5 C          -1.1214   24.0589    9.6854 C.3     1  LIG1       -0.0471
      6 C          -1.5824   23.1795   10.8502 C.3     1  LIG1       -0.0527
      7 C          -0.8551   23.5463   12.1491 C.3     1  LIG1       -0.0530
      8 C          -1.0780   25.0277   12.4857 C.3     1  LIG1       -0.0527
      9 C          -0.6321   25.9351   11.3273 C.3     1  LIG1       -0.0471
     10 C           4.6903   25.7129    5.8380 C.ar    1  LIG1       -0.0590
     11 C           4.6667   25.1395    7.1233 C.ar    1  LIG1       -0.0482
     12 C           3.9496   25.7658    8.1576 C.ar    1  LIG1        0.0094
     13 C           3.2460   26.9556    7.8985 C.ar    1  LIG1       -0.0271
     14 N           0.6302   28.2313    7.4508 N.ar    1  LIG1       -0.1773
     15 C          -0.4898   28.6252    8.0923 C.ar    1  LIG1        0.2476
     16 O          -1.1796   27.7315    8.8832 O.3     1  LIG1       -0.4745
     17 C          -0.8660   29.9818    8.0000 C.ar    1  LIG1        0.1690
     18 N          -1.9251   30.7129    8.5212 N.ar    1  LIG1       -0.2289
     19 N          -0.5542   32.0464    7.3306 N.ar    1  LIG1       -0.3291
     20 C          -0.0249   30.7863    7.2610 C.ar    1  LIG1        0.1665
     21 N           1.1172   30.4049    6.6113 N.ar    1  LIG1       -0.1946
     22 N           2.5827   28.6807    6.3360 N.pl3   1  LIG1       -0.2835
     23 C           3.2365   27.5251    6.6032 C.ar    1  LIG1        0.0346
     24 C           3.9871   26.9068    5.5819 C.ar    1  LIG1       -0.0404
     25 H          -2.3542   32.7337    8.2866 H       1  LIG1        0.1027
     26 H           0.3421   26.2813    8.8885 H       1  LIG1        0.0700
     27 H          -1.0533   25.9544    7.8735 H       1  LIG1        0.0700
     28 H          -2.3846   25.7536   10.0698 H       1  LIG1        0.0334
     29 H          -1.6745   23.7903    8.7850 H       1  LIG1        0.0269
     30 H          -0.0713   23.8531    9.4740 H       1  LIG1        0.0269
     31 H          -2.6489   23.3294   10.9949 H       1  LIG1        0.0265
     32 H          -1.4335   22.1247   10.6147 H       1  LIG1        0.0265
     33 H          -1.2175   22.9242   12.9680 H       1  LIG1        0.0265
     34 H           0.2126   23.3446   12.0504 H       1  LIG1        0.0265
     35 H          -2.1337   25.2025   12.7004 H       1  LIG1        0.0265
     36 H          -0.5350   25.2900   13.3929 H       1  LIG1        0.0265
     37 H           0.4518   25.8639   11.2223 H       1  LIG1        0.0269
     38 H          -0.8463   26.9766   11.5731 H       1  LIG1        0.0269
     39 H           5.2554   25.2427    5.0475 H       1  LIG1        0.0618
     40 H           5.2165   24.2329    7.3224 H       1  LIG1        0.0629
     41 H           2.7083   27.4238    8.7079 H       1  LIG1        0.0647
     42 H          -0.1784   32.8770    6.8845 H       1  LIG1        0.1682
     43 H           3.0167   29.2655    5.6333 H       1  LIG1        0.1550
     44 H           4.0234   27.3389    4.5933 H       1  LIG1        0.0636
     45 S           3.9347   25.0874    9.7381 S.3     1  LIG1       -0.1285
     46 C           2.9329   26.1133   10.8427 C.3     1  LIG1       -0.0135
     47 H           2.9293   25.6643   11.8676 H       1  LIG1        0.0344
     48 H           3.3655   27.1441   10.8887 H       1  LIG1        0.0344
     49 H           1.8848   26.1655   10.4547 H       1  LIG1        0.0344
@<TRIPOS>BOND
     1     1    14   ar
     2     1    21   ar
     3     1    22    1
     4     2    18   ar
     5     2    19   ar
     6     2    25    1
     7     3     4    1
     8     3    16    1
     9     3    26    1
    10     3    27    1
    11     4     5    1
    12     4     9    1
    13     4    28    1
    14     5     6    1
    15     5    29    1
    16     5    30    1
    17     6     7    1
    18     6    31    1
    19     6    32    1
    20     7     8    1
    21     7    33    1
    22     7    34    1
    23     8     9    1
    24     8    35    1
    25     8    36    1
    26     9    37    1
    27     9    38    1
    28    10    11   ar
    29    10    24   ar
    30    10    39    1
    31    11    12   ar
    32    11    40    1
    33    12    13   ar
    34    12    45    1
    35    13    23   ar
    36    13    41    1
    37    14    15   ar
    38    15    16    1
    39    15    17   ar
    40    17    18   ar
    41    17    20   ar
    42    19    20   ar
    43    19    42    1
    44    20    21   ar
    45    22    23    1
    46    22    43    1
    47    23    24   ar
    48    24    44    1
    49    45    46    1
    50    46    47    1
    51    46    48    1
    52    46    49    1
@<TRIPOS>MOLECULE
17
 45 48 0 0 0
SMALL
GASTEIGER
****
Structure written by MMmdl.
@<TRIPOS>ATOM
      1 C           1.3901   29.1077    6.7935 C.ar    1  LIG1        0.2246
      2 C          -1.6911   31.9130    8.0794 C.ar    1  LIG1        0.0958
      3 C          -0.7437   26.3748    8.8319 C.3     1  LIG1        0.0941
      4 C          -1.3142   25.5567    9.9914 C.3     1  LIG1       -0.0067
      5 C          -1.1214   24.0589    9.6854 C.3     1  LIG1       -0.0471
      6 C          -1.5824   23.1795   10.8502 C.3     1  LIG1       -0.0527
      7 C          -0.8551   23.5463   12.1491 C.3     1  LIG1       -0.0530
      8 C          -1.0780   25.0277   12.4857 C.3     1  LIG1       -0.0527
      9 C          -0.6321   25.9351   11.3273 C.3     1  LIG1       -0.0471
     10 C           4.6903   25.7129    5.8380 C.ar    1  LIG1       -0.0590
     11 C           4.6667   25.1395    7.1233 C.ar    1  LIG1       -0.0476
     12 C           3.9496   25.7658    8.1576 C.ar    1  LIG1        0.0196
     13 C           3.2460   26.9556    7.8985 C.ar    1  LIG1       -0.0265
     14 N           0.6302   28.2313    7.4508 N.ar    1  LIG1       -0.1773
     15 C          -0.4898   28.6252    8.0923 C.ar    1  LIG1        0.2476
     16 O          -1.1796   27.7315    8.8832 O.3     1  LIG1       -0.4745
     17 C          -0.8660   29.9818    8.0000 C.ar    1  LIG1        0.1690
     18 N          -1.9251   30.7129    8.5212 N.ar    1  LIG1       -0.2289
     19 N          -0.5542   32.0464    7.3306 N.ar    1  LIG1       -0.3291
     20 C          -0.0249   30.7863    7.2610 C.ar    1  LIG1        0.1665
     21 N           1.1172   30.4049    6.6113 N.ar    1  LIG1       -0.1946
     22 N           2.5827   28.6807    6.3360 N.pl3   1  LIG1       -0.2835
     23 C           3.2365   27.5251    6.6032 C.ar    1  LIG1        0.0346
     24 C           3.9871   26.9068    5.5819 C.ar    1  LIG1       -0.0404
     25 H          -2.3542   32.7337    8.2866 H       1  LIG1        0.1027
     26 H           0.3421   26.2813    8.8885 H       1  LIG1        0.0700
     27 H          -1.0533   25.9544    7.8735 H       1  LIG1        0.0700
     28 H          -2.3846   25.7536   10.0698 H       1  LIG1        0.0334
     29 H          -1.6745   23.7903    8.7850 H       1  LIG1        0.0269
     30 H          -0.0713   23.8531    9.4740 H       1  LIG1        0.0269
     31 H          -2.6489   23.3294   10.9949 H       1  LIG1        0.0265
     32 H          -1.4335   22.1247   10.6147 H       1  LIG1        0.0265
     33 H          -1.2175   22.9242   12.9680 H       1  LIG1        0.0265
     34 H           0.2126   23.3446   12.0504 H       1  LIG1        0.0265
     35 H          -2.1337   25.2025   12.7004 H       1  LIG1        0.0265
     36 H          -0.5350   25.2900   13.3929 H       1  LIG1        0.0265
     37 H           0.4518   25.8639   11.2223 H       1  LIG1        0.0269
     38 H          -0.8463   26.9766   11.5731 H       1  LIG1        0.0269
     39 H           5.2554   25.2427    5.0475 H       1  LIG1        0.0618
     40 H           5.2165   24.2329    7.3224 H       1  LIG1        0.0629
     41 H           2.7083   27.4238    8.7079 H       1  LIG1        0.0647
     42 H          -0.1784   32.8770    6.8845 H       1  LIG1        0.1682
     43 H           3.0167   29.2655    5.6333 H       1  LIG1        0.1550
     44 H           4.0234   27.3389    4.5933 H       1  LIG1        0.0636
     45 BR          3.9332   25.0203    9.8943 Br      1  LIG1       -0.0502
@<TRIPOS>BOND
     1     1    14   ar
     2     1    21   ar
     3     1    22    1
     4     2    18   ar
     5     2    19   ar
     6     2    25    1
     7     3     4    1
     8     3    16    1
     9     3    26    1
    10     3    27    1
    11     4     5    1
    12     4     9    1
    13     4    28    1
    14     5     6    1
    15     5    29    1
    16     5    30    1
    17     6     7    1
    18     6    31    1
    19     6    32    1
    20     7     8    1
    21     7    33    1
    22     7    34    1
    23     8     9    1
    24     8    35    1
    25     8    36    1
    26     9    37    1
    27     9    38    1
    28    10    11   ar
    29    10    24   ar
    30    10    39    1
    31    11    12   ar
    32    11    40    1
    33    12    13   ar
    34    12    45    1
    35    13    23   ar
    36    13    41    1
    37    14    15   ar
    38    15    16    1
    39    15    17   ar
    40    17    18   ar
    41    17    20   ar
    42    19    20   ar
    43    19    42    1
    44    20    21   ar
    45    22    23    1
    46    22    43    1
    47    23    24   ar
    48    24    44    1
@<TRIPOS>MOLECULE
1h1q
 45 48 0 0 0
SMALL
GASTEIGER
****
Structure written by MMmdl.
@<TRIPOS>ATOM
      1 C           1.3901   29.1077    6.7935 C.ar    1  LIG1        0.2246
      2 C          -1.6911   31.9130    8.0794 C.ar    1  LIG1        0.0958
      3 C          -0.7437   26.3748    8.8319 C.3     1  LIG1        0.0941
      4 C          -1.3142   25.5567    9.9914 C.3     1  LIG1       -0.0067
      5 C          -1.1214   24.0589    9.6854 C.3     1  LIG1       -0.0471
      6 C          -1.5824   23.1795   10.8502 C.3     1  LIG1       -0.0527
      7 C          -0.8551   23.5463   12.1491 C.3     1  LIG1       -0.0530
      8 C          -1.0780   25.0277   12.4857 C.3     1  LIG1       -0.0527
      9 C          -0.6321   25.9351   11.3273 C.3     1  LIG1       -0.0471
     10 C           4.6903   25.7129    5.8380 C.ar    1  LIG1       -0.0600
     11 C           4.6667   25.1395    7.1233 C.ar    1  LIG1       -0.0616
     12 C           3.9496   25.7658    8.1576 C.ar    1  LIG1       -0.0600
     13 C           3.2460   26.9556    7.8985 C.ar    1  LIG1       -0.0405
     14 N           0.6302   28.2313    7.4508 N.ar    1  LIG1       -0.1773
     15 C          -0.4898   28.6252    8.0923 C.ar    1  LIG1        0.2476
     16 O          -1.1796   27.7315    8.8832 O.3     1  LIG1       -0.4745
     17 C          -0.8660   29.9818    8.0000 C.ar    1  LIG1        0.1690
     18 N          -1.9251   30.7129    8.5212 N.ar    1  LIG1       -0.2289
     19 N          -0.5542   32.0464    7.3306 N.ar    1  LIG1       -0.3291
     20 C          -0.0249   30.7863    7.2610 C.ar    1  LIG1        0.1665
     21 N           1.1172   30.4049    6.6113 N.ar    1  LIG1       -0.1946
     22 N           2.5827   28.6807    6.3360 N.pl3   1  LIG1       -0.2835
     23 C           3.2365   27.5251    6.6032 C.ar    1  LIG1        0.0336
     24 C           3.9871   26.9068    5.5819 C.ar    1  LIG1       -0.0405
     25 H          -2.3542   32.7337    8.2866 H       1  LIG1        0.1027
     26 H           0.3421   26.2813    8.8885 H       1  LIG1        0.0700
     27 H          -1.0533   25.9544    7.8735 H       1  LIG1        0.0700
     28 H          -2.3846   25.7536   10.0698 H       1  LIG1        0.0334
     29 H          -1.6745   23.7903    8.7850 H       1  LIG1        0.0269
     30 H          -0.0713   23.8531    9.4740 H       1  LIG1        0.0269
     31 H          -2.6489   23.3294   10.9949 H       1  LIG1        0.0265
     32 H          -1.4335   22.1247   10.6147 H       1  LIG1        0.0265
     33 H          -1.2175   22.9242   12.9680 H       1  LIG1        0.0265
     34 H           0.2126   23.3446   12.0504 H       1  LIG1        0.0265
     35 H          -2.1337   25.2025   12.7004 H       1  LIG1        0.0265
     36 H          -0.5350   25.2900   13.3929 H       1  LIG1        0.0265
     37 H           0.4518   25.8639   11.2223 H       1  LIG1        0.0269
     38 H          -0.8463   26.9766   11.5731 H       1  LIG1        0.0269
     39 H           5.2554   25.2427    5.0475 H       1  LIG1        0.0618
     40 H           5.2165   24.2329    7.3224 H       1  LIG1        0.0618
     41 H           3.9402   25.3397    9.1502 H       1  LIG1        0.0618
     42 H           2.7083   27.4238    8.7079 H       1  LIG1        0.0636
     43 H          -0.1784   32.8770    6.8845 H       1  LIG1        0.1682
     44 H           3.0167   29.2655    5.6333 H       1  LIG1        0.1550
     45 H           4.0234   27.3389    4.5933 H       1  LIG1        0.0636
@<TRIPOS>BOND
     1     1    14   ar
     2     1    21   ar
     3     1    22    1
     4     2    18   ar
     5     2    19   ar
     6     2    25    1
     7     3     4    1
     8     3    16    1
     9     3    26    1
    10     3    27    1
    11     4     5    1
    12     4     9    1
    13     4    28    1
    14     5     6    1
    15     5    29    1
    16     5    30    1
    17     6     7    1
    18     6    31    1
    19     6    32    1
    20     7     8    1
    21     7    33    1
    22     7    34    1
    23     8     9    1
    24     8    35    1
    25     8    36    1
    26     9    37    1
    27     9    38    1
    28    10    11   ar
    29    10    24   ar
    30    10    39    1
    31    11    12   ar
    32    11    40    1
    33    12    13   ar
    34    12    41    1
    35    13    23   ar
    36    13    42    1
    37    14    15   ar
    38    15    16    1
    39    15    17   ar
    40    17    18   ar
    41    17    20   ar
    42    19    20   ar
    43    19    43    1
    44    20    21   ar
    45    22    23    1
    46    22    44    1
    47    23    24   ar
    48    24    45    1
